/*--------------------------------*- C++ -*----------------------------------*\
  =========                 |
  \\      /  F ield         | OpenFOAM: The Open Source CFD Toolbox
   \\    /   O peration     | Website:  https://openfoam.org
    \\  /    A nd           | Version:  9
     \\/     M anipulation  |
\*---------------------------------------------------------------------------*/
FoamFile
{
    format      ascii;
    class       dictionary;
    location    "constant/polyMesh";
    object      meshMetaDict;
}
// * * * * * * * * * * * * * * * * * * * * * * * * * * * * * * * * * * * * * //

surfaceFile     "Common_Geometry.fms";

surfaceMeta
{
    nPoints         5945;
    nFacets         12063;
    nPatches        5;
    nFeatureEdges   6003;
    patches
    {
        patch_0_0
        {
            type            empty;
            nFacets         212;
        }
        patch_1_0
        {
            type            empty;
            nFacets         24;
        }
        patch_2_0
        {
            type            empty;
            nFacets         524;
        }
        patch_3_0
        {
            type            empty;
            nFacets         156;
        }
        patch_4_0
        {
            type            empty;
            nFacets         11147;
        }
    }
    pointSubsets
    {
    }
    facetSubsets
    {
    }
    featureEdgeSubsets
    {
    }
}
