/*--------------------------------*- C++ -*----------------------------------*\
  =========                 |
  \\      /  F ield         | OpenFOAM: The Open Source CFD Toolbox
   \\    /   O peration     | Website:  https://openfoam.org
    \\  /    A nd           | Version:  9
     \\/     M anipulation  |
\*---------------------------------------------------------------------------*/
FoamFile
{
    format      ascii;
    class       polyBoundaryMesh;
    location    "constant/polyMesh";
    object      boundary;
}
// * * * * * * * * * * * * * * * * * * * * * * * * * * * * * * * * * * * * * //

6
(
    inlet
    {
        type            patch;
        nFaces          0;
        startFace       1725006;
    }
    outlet
    {
        type            patch;
        nFaces          3980;
        startFace       1725006;
    }
    constraint
    {
        type            symmetry;
        inGroups        List<word> 1(symmetry);
        nFaces          24776;
        startFace       1728986;
    }
    wall
    {
        type            wall;
        inGroups        List<word> 1(wall);
        nFaces          24038;
        startFace       1753762;
    }
    defaultFaces
    {
        type            patch;
        nFaces          0;
        startFace       1777800;
    }
    procBoundary1to0
    {
        type            processor;
        inGroups        List<word> 1(processor);
        nFaces          6880;
        startFace       1777800;
        matchTolerance  0.0001;
        myProcNo        1;
        neighbProcNo    0;
    }
)

// ************************************************************************* //
